Version 4
SHEET 1 1176 680
WIRE -112 -176 -192 -176
WIRE 0 -176 -112 -176
WIRE 96 -176 0 -176
WIRE 0 -128 0 -176
WIRE -192 -112 -192 -176
WIRE -112 -112 -112 -176
WIRE -192 -32 -192 -48
WIRE -112 -32 -112 -48
WIRE -112 -32 -192 -32
WIRE 0 -32 0 -48
WIRE 0 -32 -112 -32
WIRE 0 -16 0 -32
WIRE 400 16 272 16
WIRE 496 16 464 16
WIRE 640 16 576 16
WIRE 0 160 -368 160
WIRE 128 160 80 160
WIRE 224 160 128 160
WIRE 240 160 224 160
WIRE 272 176 272 16
WIRE 288 176 272 176
WIRE 640 176 640 16
WIRE 640 176 416 176
WIRE 720 176 640 176
WIRE 880 176 784 176
WIRE 640 192 640 176
WIRE -368 208 -368 160
WIRE 288 208 272 208
WIRE 448 208 416 208
WIRE 128 240 128 160
WIRE 224 240 224 160
WIRE 240 240 240 160
WIRE 288 240 240 240
WIRE 496 240 416 240
WIRE 880 240 880 176
WIRE 272 272 272 208
WIRE 288 272 272 272
WIRE 496 272 496 240
WIRE 640 288 640 272
WIRE -368 336 -368 288
WIRE 128 368 128 320
WIRE 224 368 224 304
WIRE 224 368 128 368
WIRE 272 368 272 272
WIRE 272 368 224 368
WIRE 496 368 496 336
WIRE 496 368 272 368
WIRE 640 368 640 352
WIRE 640 368 496 368
WIRE 880 368 880 320
WIRE 880 368 640 368
WIRE 128 416 128 368
FLAG 0 -16 0
FLAG 96 -176 12V
FLAG 128 416 0
FLAG -368 336 0
FLAG 448 208 12V
FLAG 880 176 Output
FLAG -368 160 Input
SYMBOL voltage 0 -144 R0
WINDOW 123 0 0 Left 0
WINDOW 39 0 0 Left 0
SYMATTR InstName V1
SYMATTR Value 12
SYMBOL res 144 336 R180
WINDOW 0 36 76 Left 2
WINDOW 3 19 6 Left 2
SYMATTR InstName R3
SYMATTR Value {10.1k - VOL}
SYMBOL cap 208 240 R0
WINDOW 0 -25 11 Left 2
WINDOW 3 -35 47 Left 2
SYMATTR InstName C2
SYMATTR Value 33p
SYMBOL cap 464 0 R90
WINDOW 0 0 32 VBottom 2
WINDOW 3 32 32 VTop 2
SYMATTR InstName C4
SYMATTR Value 33n
SYMBOL res 480 32 R270
WINDOW 0 32 56 VTop 2
WINDOW 3 0 56 VBottom 2
SYMATTR InstName R4
SYMATTR Value 10k
SYMBOL res 656 288 R180
WINDOW 0 36 76 Left 2
WINDOW 3 36 40 Left 2
SYMATTR InstName R5
SYMATTR Value 10
SYMBOL cap 656 352 R180
WINDOW 0 24 56 Left 2
WINDOW 3 24 8 Left 2
SYMATTR InstName C5
SYMATTR Value 47n
SYMBOL polcap 720 192 R270
WINDOW 0 32 32 VTop 2
WINDOW 3 0 32 VBottom 2
SYMATTR InstName C6
SYMATTR Value 1000µ
SYMATTR Description Capacitor
SYMATTR Type cap
SYMATTR SpiceLine V=50 Irms=2m Rser=1.87785 Lser=2.00818n
SYMBOL res 864 224 R0
SYMATTR InstName R6
SYMATTR Value 8
SYMBOL voltage -368 192 R0
WINDOW 123 24 124 Left 2
WINDOW 39 24 152 Left 2
SYMATTR Value2 AC 0.3
SYMATTR InstName V2
SYMATTR Value SINE(0 0.3 1k)
SYMBOL polcap 480 272 R0
WINDOW 3 24 56 Left 2
SYMATTR Value 10µ
SYMATTR InstName C7
SYMATTR Description Capacitor
SYMATTR Type cap
SYMATTR SpiceLine V=50 Irms=2m Rser=1.87785 Lser=2.00818n
SYMBOL polcap -128 -112 R0
WINDOW 3 24 56 Left 2
SYMATTR Value 100µ
SYMATTR InstName C3
SYMATTR Description Capacitor
SYMATTR Type cap
SYMATTR SpiceLine V=50 Irms=2m Rser=1.87785 Lser=2.00818n
SYMBOL cap -208 -112 R0
WINDOW 0 -25 11 Left 2
WINDOW 3 -35 47 Left 2
SYMATTR InstName C8
SYMATTR Value 100p
SYMBOL AutoGenerated\\lm386 352 224 R0
SYMATTR InstName U1
SYMBOL res 96 144 R90
WINDOW 0 0 56 VBottom 2
WINDOW 3 32 56 VTop 2
SYMATTR InstName R1
SYMATTR Value {VOL}
TEXT 904 224 Left 4 ;Speaker
TEXT -592 240 Left 4 ;Audio In
TEXT 72 -136 Left 4 ;Power supply
TEXT -568 440 Left 2 !.tran 0 50m 10m
TEXT 896 -120 Left 2 !.four 1k 10 -1 V(output)
TEXT -160 56 Left 2 !;step param Vol 0.1k 10k 2k
TEXT -600 80 Left 2 !;ac oct 100 10 20k
TEXT -160 96 Left 2 !.param Vol=0.01
